Distribution/8500Node/DSSfiles/8500Node_Losses.Txt

LOSSES REPORT

Power Delivery Element Loss Report

Element                  kW Losses    % of Power   kvar Losses

"Line.HVMV_SUB_CONNECTOR"     0.00083,      0.0     0.00831431
"Line.LN5502549-1"            0.00021,      0.0     -0.00398416
"Line.LN6259988-1"            0.00038,      0.0     -0.0137357
"Line.LN6077796-1"            0.00005,      0.0     -0.00144237
"Line.LN5835135-2"            0.02189,     0.02     0.00634792
"Line.LN5896826-1"            0.00015,      0.0     -0.0273331
"Line.LN5714038-1"            0.00080,      0.0     -0.012779
"Line.LN5653457-1"            0.32651,     0.06     0.0759763
"Line.LN5835173-1"            0.15976,     0.02     0.134762
"Line.LN6321415-1"            0.00021,      0.0     -0.0118812
"Line.LN5565092-1"            0.00003,      0.0     -0.000464305
"Line.LN6073648-1"            0.00012,      0.0     -0.000905179
"Line.LN5774457-1"            0.10167,     0.02     0.0166738
"Line.LN5534966-3"            0.00506,     0.01     -0.000289418
"Line.LN5859996-1"            0.00005,      0.0     -0.000772464
"Line.LN6138610-2"            1.40506,     0.06     0.441539
"Line.LN6258435-3"            0.00067,      0.0     -0.0117389
"Line.LN5804790-1"            0.00070,      0.0     -0.0241992
"Line.LN6900591-14"           0.00148,     0.00     -0.00713093
"Line.LN6409873-1"            0.01336,     0.02     -0.00210671
"Line.LN6014135-1"            0.00064,      0.0     -0.000163583
"Line.LN6077784-1"            0.31668,     0.03     0.266609
"Line.LN5744338-1"            0.06645,     0.04     0.0305886
"Line.LN6991381-4"            0.00230,     0.01     -0.00855952
"Line.LN5774480-1"            0.25475,     0.11     0.122447
"Line.LN5986938-3"            0.00043,      0.0     -0.000834906
"Line.LN5894230-1"            0.00044,      0.0     -0.0162645
"Line.LN5683858-3"            0.00088,      0.0     -0.00979279
"Line.LN5920279-5"            1.00493,     0.02     2.39046
"Line.LN6439600-1"            0.00020,      0.0     -0.0133428
"Line.LN5589097-1"            0.00011,      0.0     -0.00307147
"Line.LN5651975-1"            0.28921,     0.04     0.0927834
"Line.LN5865236-1"            0.00010,      0.0     -0.0011317
"Line.LN5593232-1"            0.00033,      0.0     -0.0185345
"Line.LN5740283-1"            0.00003,      0.0     -0.000890866
"Line.LN6106559-1"            0.00258,     0.01     -0.0114828
"Line.LN5714056-3"            0.70754,     0.11     0.209725
"Line.LN5985355-3"            0.35838,     0.09     0.187276
"Line.LN5531956-1"            0.00013,      0.0     -0.00840603
"Line.LN5650048-1"            0.00013,      0.0     -0.00792116
"Line.LN6290203-1"            0.24254,     0.03     0.191919
"Line.LN6134414-1"            0.00055,      0.0     -0.00793728
"Line.LN6259998-2"            0.00005,      0.0     -0.00175593
"Line.LN6078767-1"            0.24372,     0.01     0.545495
"Line.LN6017300-1"            0.00011,      0.0     -0.0113021
"Line.LN8979257-2"            0.00004,      0.0     -0.0379708
"Line.LN81048109-1"           0.00195,     0.01     -0.0520809
"Line.293471"                 0.00027,      0.0     -0.0175794
"Line.LN5534965-2"            0.00002,      0.0     -0.000802255
"Line.LN5655683-1"            0.00420,     0.00     0.00160264
"Line.LN5686247-1"            0.00004,      0.0     -0.000822438
"Line.LN6048642-1"            0.00000,      0.0     -0.0138121
"Line.LN5928544-3"            0.01961,     0.02     0.00358404
"Line.LN6108172-1"            0.00157,     0.01     -0.025141
"Line.LN5532754-1"            0.12009,     0.02     0.0368272
"Line.LN5591834-1"            0.00108,     0.00     -0.00870058
"Line.LN6347196-2"            0.06498,     0.01     0.00755428
"Line.LN5532741-1"            0.00798,     0.01     -0.00330785
"Line.LN5804803-1"            0.00020,      0.0     -0.0367081
"Line.LN6169248-1"            0.96493,     0.06     0.909978
"Line.LN5532786-2"            0.00009,      0.0     -0.00207435
"Line.LN5744339-1"            0.03829,     0.03     0.010727
"Line.LN5531255-3"            0.02637,     0.02     0.00794666
"Line.LN5926308-2"            0.23402,     0.03     0.064621
"Line.LN5683856-3"            0.00007,      0.0     -0.00328007
"Line.LN6171502-1"            0.00005,      0.0     -0.0008733
"Line.LN5593228-1"            0.00013,      0.0     -0.00781739
"Line.LN6380800-1"            0.00013,      0.0     -0.00745757
"Line.LN6199525-2"            0.00003,      0.0     -0.00865034
"Line.LN5772710-2"            0.01563,     0.02     -0.00263703
"Line.LN8961760-1"            0.00013,      0.0     -0.00282535
"Line.LN6047556-1"            0.00026,      0.0     -0.0153985
"Line.LN6138603-1"            0.00107,     0.01     -0.0158943
"Line.LN6108139-1"            0.00002,      0.0     -0.00228481
"Line.LN6388581-2"            0.00006,      0.0     -0.00677205
"Line.LN5774460-1"            0.00004,      0.0     -0.0074371
"Line.LN5624387-1"            0.00044,      0.0     -0.00684163
"Line.LN6137087-1"            0.00703,     0.01     -0.00070855
"Line.LN6077809-1"            0.02656,     0.03     0.00675398
"Line.LN6440079-1"            0.00078,      0.0     -0.00629684
"Line.LN5804794-1"            0.01679,     0.02     -0.000374029
"Line.LN5654484-1"            0.00010,      0.0     -0.00360116
"Line.LN5774465-1"            0.00092,     0.01     -0.0146407
"Line.LN5473349-1"            0.89874,     0.01     2.13364
"Line.LN6169253-1"            0.00016,      0.0     -0.00695631
"Line.LN6350536-1"            0.00011,      0.0     -0.0209699
"Line.LN6048523-1"            0.07492,     0.05     0.0273842
"Line.LN5594152-1"            0.07263,     0.04     0.0415084
"Line.LN5865248-1"            0.34352,     0.04     0.0952874
"Line.LN6046143-1"            0.00004,      0.0     -0.0114406
"Line.LN5803287-1"            0.00020,      0.0     -0.00270123
"Line.LN5589094-1"            0.12108,     0.05     0.0578798
"Line.LN5954983-1"            0.04234,     0.04     0.0121058
"Line.LN5924696-2"            0.00003,      0.0     -0.00563881
"Line.LN6506311-4"            0.00000,      0.0     -0.00109955
"Line.LN5653493-1"            0.01308,     0.01     0.00542871
"Line.LN5684836-1"            2.85619,     0.05     6.78638
"Line.LN5715016-3"            0.00005,      0.0     -0.00918553
"Line.LN6138614-1"            0.89364,     0.10     0.259582
"Line.LN6077781-2"            9.76069,     0.19     9.14959
"Line.LN5675121-1"            0.00003,      0.0     -0.0126215
"Line.LN5773046-1"            0.16069,     0.07     0.0791599
"Line.LN6380809-2"            0.09406,     0.01     0.0360243
"Line.LN6018326-1"            0.00029,      0.0     -0.00783949
"Line.LN5472356-1"            0.00003,      0.0     -0.00790235
"Line.LN6139641-1"            2.29711,     0.03     5.46256
"Line.LN6018341-1"            0.71055,     0.03     1.58266
"Line.LN6017302-1"            0.13378,     0.05     0.0407022
"Line.LN6199505-1"            0.00002,      0.0     -0.00452904
"Line.LN5682327-1"            0.00368,     0.00     0.00130141
"Line.LN6290243-1"            0.00060,      0.0     -0.00792848
"Line.X8223_48332_SW"         0.01534,     0.00     0.0152748
"Line.LN6413567-3"            0.35928,     0.03     0.12417
"Line.LN5591731-3"            0.07594,     0.00     0.180628
"Line.LN5653470-1"            0.00028,      0.0     -0.0304015
"Line.LN6017316-1"            0.21578,     0.09     0.106609
"Line.LN5926299-1"            0.00055,      0.0     -0.00722252
"Line.LN5683831-1"            0.53493,     0.06     0.151072
"Line.LN6352700-1"            0.00008,      0.0     -0.000246547
"Line.LN6047570-1"            0.00004,      0.0     -0.00595914
"Line.LN5624342-1"            2.32629,     0.04     5.53001
"Line.LN6259992-1"            0.00014,      0.0     -0.00559995
"Line.LN5841919-1"            0.00008,      0.0     -0.0112902
"Line.LN6380811-1"            0.06481,     0.06     0.0184652
"Line.LN5683832-1"            0.00014,      0.0     -0.00939107
"Line.LN6077778-1"            0.00015,      0.0     -0.010719
"Line.LN5561442-2"            3.21696,     0.04     7.65674
"Line.LN6259983-1"            0.00038,      0.0     -0.0202161
"Line.LN5865244-1"            0.02096,     0.02     0.00572062
"Line.LN6350555-1"            0.00005,      0.0     -0.00799081
"Line.LN5714039-1"            0.00260,     0.01     -0.00477583
"Line.LN5889821-1"            3.77338,     0.06     8.97568
"Line.LN5804791-1"            1.50830,     0.12     0.514918
"Line.LN5653486-1"            0.00265,     0.01     -0.00933107
"Line.LN5926286-1"            0.00211,     0.01     -0.00729614
"Line.LN6318859-1"            0.00000,      0.0     -0.00698511
"Line.LN5926316-1"            0.00203,     0.00     -0.000130744
"Line.LN5591703-1"            0.00065,      0.0     -0.00756565
"Line.LN5531333-1"            0.00183,     0.01     -0.00283228
"Line.LN6047581-1"            0.00004,      0.0     -0.00360218
"Line.LN6349077-1"            0.00000,      0.0     -0.00502546
"Line.LN6350574-1"            0.02307,     0.01     -0.0342772
"Line.LN6320343-1"            0.03714,     0.03     0.0112222
"Line.LN81048100-5"           0.03845,     0.02     -0.00600926
"Line.LN6348946-1"            0.00002,      0.0     -0.00109304
"Line.LN5744351-1"            0.00016,      0.0     -0.00965549
"Line.LN5472342-1"            0.00004,      0.0     -0.00729783
"Line.LN5621849-1"            0.00007,      0.0     -0.000615188
"Line.LN6379375-1"            0.00004,      0.0     -0.00676771
"Line.LN6028890-1"            0.00062,      0.0     -0.0207844
"Line.LN6380822-1"            0.90516,     0.07     0.79049
"Line.LN5835131-1"            0.25023,     0.03     0.193483
"Line.LN5803262-7"            0.00001,      0.0     -0.00183629
"Line.LN81048089-1"           0.03486,     0.03     -0.0472952
"Line.LN6201699-1"            0.00003,      0.0     -0.000906764
"Line.LN5746548-1"            0.05643,     0.01     0.0165832
"Line.LN5835174-1"            0.41943,     0.17     0.208025
"Line.LN6505947-4"            0.00135,     0.00     0.000429315
"Line.LN5683833-1"            0.31363,     0.15     0.147713
"Line.LN5561439-3"            0.11984,     0.02     0.204125
"Line.LN6109190-1"            0.00118,     0.00     -0.00344969
"Line.LN6258435-2"            0.00014,      0.0     -0.00240417
"Line.LN5804819-1"            0.00021,      0.0     -0.0238171
"Line.LN5593215-1"            0.08605,     0.04     0.0402124
"Line.LN5833717-1"            0.24384,     0.02     0.212134
"Line.LN6199557-1"            0.45866,     0.05     0.393867
"Line.LN5744332-1"            0.00008,      0.0     -0.00793015
"Line.LN5558790-1"            0.84656,     0.01     2.01184
"Line.LN6078692-1"            0.08737,     0.04     0.0411799
"Line.LN5956482-1"            0.01603,     0.00     0.0082639
"Line.LN5593225-1"            0.00017,      0.0     -0.00946679
"Line.LN6900591-26"           0.00046,      0.0     -0.000142653
"Line.LN5952393-1"            0.00230,     0.01     -0.00364416
"Line.LN6350531-1"            0.02271,     0.06     -0.0380367
"Line.LN5965099-10"           0.02398,     0.01     0.0130386
"Line.LN6047568-1"            0.44669,     0.19     0.217808
"Line.LN5926292-1"            0.00013,      0.0     -0.00823304
"Line.LN6380806-1"            0.00116,     0.00     -0.00733686
"Line.LN6341781-3"            0.00017,      0.0     -0.0113297
"Line.LN8979367-1"            0.00043,      0.0     -0.0638242
"Line.LN6018340-1"            0.00123,     0.01     -0.0136077
"Line.LN6380847-1"            0.47290,     0.08     0.1186
"Line.LN8961797-1"            0.00144,     0.01     -0.0961874
"Line.LN6077797-1"            0.00727,     0.02     -0.0136313
"Line.LN6077773-1"            0.00531,     0.01     -0.00806245
"Line.LN5837496-4"            0.00008,      0.0     -0.0041166
"Line.LN5623392-1"            0.00417,     0.01     -0.0142188
"Line.LN5624380-1"            0.00124,     0.01     -0.0153774
"Line.LN6422809-2"            0.12454,     0.00     0.11707
"Line.LN5799561-1"            1.06594,     0.03     2.39935
"Line.LN6229818-1"            0.00006,      0.0     -0.0105231
"Line.LN5593230-1"            0.18050,     0.07     0.0920639
"Line.LN5563901-3"            2.02579,     0.03     4.81939
"Line.LN6320339-1"            0.00718,     0.02     -0.0189298
"Line.LN5986927-1"            0.00004,      0.0     -0.00195104
"Line.LN6047567-1"            0.00018,      0.0     -0.00644324
"Line.LN5714047-1"            0.04075,     0.03     0.0133229
"Line.LN5563934-1"            0.00877,     0.02     -0.00831419
"Line.LN6169249-3"            0.00002,      0.0     -0.000563588
"Line.LN6230800-1"            0.00012,      0.0     -0.00473645
"Line.LN5985339-2"            0.00055,      0.0     -0.00965282
"Line.LN5898059-3"            0.00013,      0.0     -0.00295317
"Line.LN5956457-2"            0.07821,     0.01     0.0594994
"Line.LN5865229-1"            0.01945,     0.02     0.00385413
"Line.LN6018331-1"            0.61615,     0.02     1.38514
"Line.LN6199535-1"            0.00025,      0.0     -0.00914618
"Line.LN5502538-1"            0.73112,     0.10     0.229466
"Line.LN5742816-2"            0.01453,     0.02     -0.00235095
"Line.LN6229803-3"            0.00005,      0.0     -0.00297097
"Line.LN5986930-1"            0.05700,     0.06     0.00775607
"Line.LN6350532-1"            0.00011,      0.0     -0.00503849
"Line.LN5588016-3"            0.00709,     0.01     0.00241983
"Line.LN5623409-1"            0.00104,     0.01     -0.00900739
"Line.LN6350560-1"            0.01870,     0.02     0.0041969
"Line.LN5472347-1"            0.00140,     0.00     -0.00621421
"Line.LN6290199-1"            6.26531,     0.11     14.8756
"Line.LN6409775-3"            0.00227,     0.00     -0.00104869
"Line.LN5591811-1"            0.02876,     0.04     -0.00418962
"Line.LN6229808-1"            0.00013,      0.0     -0.00863688
"Line.LN5651985-3"            0.00036,      0.0     -0.00526489
"Line.LN6047577-1"            3.53448,     0.16     1.11082
"Line.LN5528574-2"            0.00002,      0.0     -0.000601599
"Line.LN5896827-1"            0.00015,      0.0     -0.00861048
"Line.LN5774451-1"            0.01641,     0.02     0.000869854
"Line.LN5504876-1"            0.00995,     0.01     -0.0350864
"Line.LN5860423-4"            1.30572,     0.03     1.22291
"Line.LN6138613-1"            0.00007,      0.0     -0.0049343
"Line.LN6077771-1"            0.03272,     0.02     0.0123226
"Line.LN6138636-1"            0.00052,      0.0     -0.0152102
"Line.LN6199512-1"            0.00127,     0.01     -0.0166845
"Line.LN6047564-1"            0.00058,      0.0     -0.00831207
"Line.LN6258460-3"            0.00052,      0.0     -0.0292545
"Line.LN5683810-1"            0.12550,     0.02     0.0978273
"Line.LN5852082-1"            0.00085,      0.0     -0.000437651
"Line.LN6380816-1"            0.00006,      0.0     -0.00866989
"Line.LN6108138-2"            0.00026,      0.0     -0.00123082
"Line.LN6167732-2"            0.00004,      0.0     -0.0018031
"Line.LN6229831-1"            0.07608,     0.03     0.037954
"Line.LN6504020-2"           30.08203,     0.27     71.0587
"Line.LN81354561-2"           0.00002,      0.0     -0.00202788
"Line.LN5654476-1"            0.00058,      0.0     -0.0105728
"Line.LN6987572-4"            0.02074,     0.01     0.0117613
"Line.LN6260025-1"            0.00016,      0.0     -0.00856893
"Line.LN5926291-1"            0.22716,     0.03     0.177098
"Line.LN8961800-1"            0.01073,     0.02     -0.0897376
"Line.LN6437757-1"            0.00007,      0.0     -0.0023441
"Line.LN5594245-1"            0.00003,      0.0     -0.00876044
"Line.LN5957492-1"            0.00001,      0.0     -0.000288408
"Line.LN5956464-1"            0.03033,     0.00     0.0116172
"Line.LN6171683-1"            0.00009,      0.0     -0.00123455
"Line.LN5625715-1"            0.00002,      0.0     -0.00030718
"Line.LN5746706-2"            0.00133,     0.00     -0.00334145
"Line.LN5653491-1"            0.00031,      0.0     -0.00791617
"Line.LN5472361-1"            0.00004,      0.0     -0.011128
"Line.LN5683856-2"            0.00002,      0.0     -0.00104403
"Line.LN5565091-1"            0.00003,      0.0     -0.00126449
"Line.LN5653466-1"            0.00080,      0.0     -0.015007
"Line.LN5534966-2"            0.00276,     0.00     -0.000158042
"Line.LN6409762-1"            0.00008,      0.0     -0.0078792
"Line.LN6109158-1"            3.93920,     0.18     1.22968
"Line.LN5835145-1"            0.00085,      0.0     -0.0197599
"Line.LN5774493-1"            0.00402,     0.01     -0.00967601
"Line.LN5835143-1"            5.03265,     0.28     1.52782
"Line.LN5926315-1"            0.00001,      0.0     -0.00137114
"Line.LN5895786-1"            0.00004,      0.0     -0.00744416
"Line.LN81048102-5"           0.00181,     0.00     -0.00150497
"Line.LN5861084-1"            0.00036,      0.0     -0.000926722
"Line.LN5774455-2"            0.00012,      0.0     -0.00203843
"Line.LN6108132-1"            0.00004,      0.0     -0.0101672
"Line.LN6077775-1"            0.00115,     0.01     -0.0171431
"Line.LN5591718-1"            0.00012,      0.0     -0.0127993
"Line.LN5653461-1"            0.00013,      0.0     -0.00867885
"Line.LN6290229-1"            0.00100,     0.00     -0.00256312
"Line.LN5774463-1"            0.00004,      0.0     -0.00996669
"Line.LN6380814-1"            0.00007,      0.0     -0.00742814
"Line.LN5895776-1"            0.00063,      0.0     -0.00729763
"Line.LN6200439-1"            0.00220,     0.00     -0.00306837
"Line.LN6138601-1"            0.00009,      0.0     -0.00164548
"Line.LN5927421-1"            0.00011,      0.0     -0.00647239
"Line.LN5532748-5"            0.46449,     0.03     0.425022
"Line.LN6506318-4"            0.00002,      0.0     -0.000422593
"Line.LN6288856-3"            0.09039,     0.05     0.0417613
"Line.LN5653452-1"            3.78153,     0.06     8.97828
"Line.LN6290205-1"            0.33607,     0.03     0.304634
"Line.LN6350547-1"            0.00015,      0.0     -0.00846838
"Line.LN6229800-1"            0.03113,     0.02     0.0109659
"Line.LN6138609-1"            0.13043,     0.05     0.0630995
"Line.LN81048090-1"           0.00000,      0.0     -0.0660879
"Line.LN5683828-1"            0.18423,     0.08     0.0902463
"Line.LN8979256-1"            0.00017,      0.0     -0.146295
"Line.LN6506317-2"            0.00018,      0.0     -0.0283905
"Line.LN6078744-1"            0.00028,      0.0     -0.0045616
"Line.LN81018875-1"           0.00003,      0.0     -0.00378628
"Line.LN6078691-1"            0.15287,     0.09     0.0607312
"Line.LN6258439-1"            0.39018,     0.07     0.175902
"Line.LN6108164-1"            0.21849,     0.06     0.113783
"Line.LN5927379-2"            0.00024,      0.0     -0.00935679
"Line.LN6110365-1"            0.00072,      0.0     -0.0122823
"Line.LN5773040-1"            0.34042,     0.06     0.144898
"Line.V7173_48332_SW"         0.21469,     0.00     0.21462
"Line.LN5534969-2"            0.78532,     0.01     1.86723
"Line.LN6015891-1"            0.00000,      0.0     -0.014004
"Line.LN5683816-1"            0.66351,     0.10     0.26694
"Line.LN6199561-1"            0.00046,      0.0     -0.00729144
"Line.LN6900591-12"           0.00289,     0.01     -0.00576086
"Line.LN6411363-1"            0.00045,      0.0     -0.0126197
"Line.LN6108130-6"            0.00025,      0.0     -0.0241876
"Line.LN5837516-1"            0.00010,      0.0     -0.00260381
"Line.LN6017301-4"            0.00007,      0.0     -0.00282959
"Line.LN5981121-1"            0.00007,      0.0     -0.0146877
"Line.LN81048107-4"           0.00084,      0.0     -0.022453
"Line.LN5472374-1"            0.04956,     0.03     0.0204351
"Line.LN5746550-2"            0.00001,      0.0     -0.00124353
"Line.LN5561437-1"            0.07015,     0.03     -0.0386828
"Line.LN6439986-3"            0.00010,      0.0     -0.00383949
"Line.LN5744324-1"            0.01366,     0.03     -0.0144701
"Line.LN6376708-1"            0.00021,      0.0     -0.00110228
"Line.LN5895816-2"            0.00091,     0.00     -0.00852912
"Line.LN5593235-1"            0.00027,      0.0     -0.0097776
"Line.LN81354563-2"           0.00129,     0.00     -0.00463544
"Line.LN5866260-1"            0.00011,      0.0     -0.00584533
"Line.LN6018243-1"            0.00879,     0.02     -0.00658623
"Line.LN5928743-3"            0.00080,      0.0     -0.0152477
"Line.LN5957501-1"            0.00005,      0.0     -0.00508158
"Line.LN6379357-1"            0.00210,     0.01     -0.00217979
"Line.LN6291252-2"            0.31543,     0.01     0.702626
"Line.LN6440002-3"            0.00753,     0.01     0.00243217
"Line.LN6076346-1"            0.87668,     0.16     0.391286
"Line.LN8978752-1"            0.00178,     0.00     -0.0170867
"Line.LN5621834-1"            0.00607,     0.02     -0.012856
"Line.LN6108123-1"            0.00008,      0.0     -0.00814893
"Line.LN6505952-4"            0.00001,      0.0     -0.000352979
"Line.LN5835159-1"            0.00004,      0.0     -0.00664656
"Line.LN5698090-2"            0.00011,      0.0     -0.000526309
"Line.LN5714050-1"            0.00036,      0.0     -0.00902448
"Line.LN5502529-1"            0.00001,      0.0     -0.000392173
"Line.LN5594236-1"            0.60024,     0.02     1.35104
"Line.LN5593248-1"            0.00011,      0.0     -0.0166811
"Line.LN5865272-1"            0.30048,     0.06     0.0810929
"Line.LN5924696-3"            0.00003,      0.0     -0.00656002
"Line.LN5589096-1"            0.00002,      0.0     -0.00123454
"Line.LN6017295-1"            0.40883,     0.13     0.213681
"Line.LN5970852-1"            0.02488,     0.01     0.0164282
"Line.LN5683820-1"            0.00008,      0.0     -0.00299235
"Line.LN6286966-3"            0.00003,      0.0     -0.00287602
"Line.LN6167715-1"            0.00001,      0.0     -0.00122379
"Line.LN6108140-2"            0.00004,      0.0     -0.00169432
"Line.LN6228279-1"            0.00027,      0.0     -0.00258655
"Line.LN5803264-2"            0.00003,      0.0     -0.00122406
"Line.LN6132680-1"            0.92043,     0.15     0.390118
"Line.LN5531195-1"            0.18952,     0.01     0.417977
"Line.LN5985361-1"            0.68839,     0.12     0.175621
"Line.LN6102293-1"            0.00399,     0.01     -0.0166294
"Line.LN8989758-1"            0.00010,      0.0     -0.0207644
"Line.LN6229790-1"            0.00147,     0.01     -0.00755607
"Line.LN5956469-1"            0.00050,      0.0     -0.0067204
"Line.LN5803270-3"            0.00023,      0.0     -0.00330776
"Line.LN81048102-6"           0.00184,     0.00     -0.00153498
"Line.LN6440070-1"            0.00000,      0.0     -0.0311065
"Line.LN6048626-1"            3.25066,     0.04     7.7293
"Line.LN6076248-1"            0.10855,     0.03     0.0817942
"Line.LN6137083-1"            0.00000,      0.0     -0.0056495
"Line.LN6286261-1"            0.00060,      0.0     -0.00920989
"Line.LN5653477-1"            0.00062,      0.0     -0.0107112
"Line.LN6078810-1"            0.00032,      0.0     -0.006192
"Line.LN6199526-1"            0.00004,      0.0     -0.00756875
"Line.LN6108125-2"            1.97619,     0.03     4.69893
"Line.LN6108149-1"            0.00055,      0.0     -0.01267
"Line.LN6230759-1"            0.00015,      0.0     -0.0177233
"Line.LN8979249-1"            0.00005,      0.0     -0.011399
"Line.LN5865237-1"            0.00009,      0.0     -0.00956215
"Line.LN5706733-2"            0.00007,      0.0     -0.000624291
"Line.LN5745348-1"            0.66265,     0.02     1.48716
"Line.LN5898059-2"            0.00038,      0.0     -0.00860261
"Line.LN5744367-1"            0.14215,     0.08     0.0617138
"Line.LN5773136-1"            0.00006,      0.0     -0.0150234
"Line.LN5472403-2"            0.00693,     0.00     -0.00287396
"Line.LN5712496-1"            0.00014,      0.0     -0.00308669
"Line.LN5772710-1"            0.02366,     0.03     -0.000399282
"Line.LN6139544-1"            0.25816,     0.12     0.171955
"Line.LN6015788-2"            0.02398,     0.03     0.00250569
"Line.LN5591702-1"            0.11746,     0.07     0.0481834
"Line.LN5986923-1"            0.03513,     0.04     0.00176173
"Line.LN6301772-2"            0.00251,     0.00     -0.00101247
"Line.LN6001653-2"            0.27180,     0.05     0.0619214
"Line.LN6017283-1"            0.00193,     0.01     -0.00860657
"Line.LN5686079-1"            0.47845,     0.04     0.403705
"Line.LN5527264-7"            0.88593,     0.02     2.10652
"Line.LN5683813-1"            0.00001,      0.0     -0.0027904
"Line.LN5986935-1"            0.61507,     0.08     0.167971
"Line.LN5956457-3"            0.11786,     0.02     0.08967
"Line.LN5654471-1"            0.70078,     0.02     1.5741
"Line.LN6409800-1"            0.00008,      0.0     -0.00490551
"Line.LN6411365-1"            0.00038,      0.0     -0.0266955
"Line.LN6320328-1"            0.07440,     0.07     0.0198479
"Line.LN5712477-3"            0.03972,     0.04     0.00870177
"Line.LN5621857-3"            0.00007,      0.0     -0.0133519
"Line.LN6440071-1"            0.09263,     0.08     0.0277423
"Line.LN5472355-1"            0.00065,      0.0     -0.0108143
"Line.LN6351523-3"            0.04807,     0.01     0.0256256
"Line.LN6047595-2"            0.00152,     0.00     -0.0840187
"Line.LN5800724-1"            0.00004,      0.0     -0.00104725
"Line.LN6422809-3"            0.28799,     0.01     0.270703
"Line.LN5532744-1"            0.00001,      0.0     -0.00243034
"Line.LN5594242-1"            7.47687,     0.07     17.6599
"Line.LN8979343-3"            0.00035,      0.0     -0.00410872
"Line.LN5835137-1"            0.00025,      0.0     -0.0113553
"Line.LN6170199-2"            0.00002,      0.0     -0.00249962
"Line.LN5683821-1"            0.00079,      0.0     -0.0109913
"Line.LN81048110-2"           0.00064,      0.0     -0.0403692
"Line.LN6506306-2"            0.00113,     0.00     -0.013816
"Line.LN5593219-1"            0.00176,     0.01     -0.00903984
"Line.LN81048087-1"           0.00451,     0.00     -0.000705732
"Line.LN6268990-4"            0.00239,     0.00     0.000201412
"Line.LN8968082-2"            0.00230,     0.01     -0.0668303
"Line.LN5744344-1"            0.01826,     0.02     0.00440196
"Line.LN5593220-2"            0.00030,      0.0     -0.0072922
"Line.V9287_48332_SW"         0.00046,      0.0     0.000439931
"Line.LN6019477-1"            0.00709,     0.00     0.00277103
"Line.LN5593227-1"            0.00008,      0.0     -0.00112713
"Line.LN6409869-1"            0.00000,      0.0     -0.00583387
"Line.LN6321419-2"            0.00502,     0.01     -0.0133356
"Line.LN6348954-1"            0.00018,      0.0     -0.0101435
"Line.LN6201695-2"            0.00002,      0.0     -0.0011668
"Line.LN6048635-1"            0.00430,     0.01     -0.0114361
"Line.LN6199519-1"            0.15051,     0.07     0.0719496
"Line.LN6505938-4"            0.00002,      0.0     -0.000304915
"Line.LN5472375-1"            0.03865,     0.01     0.0115022
"Line.LN5835124-1"            0.00043,      0.0     -0.00652219
"Line.LN6103927-1"            0.00005,      0.0     -0.000780825
"Line.LN6138622-1"            0.00023,      0.0     -0.00368926
"Line.LN5776673-1"            0.00030,      0.0     -0.00042378
"Line.LN6074369-1"            0.00017,      0.0     -0.00248287
"Line.LN5621826-1"            0.00008,      0.0     -0.00381085
"Line.LN6506312-2"            0.01190,     0.02     -0.00433013
"Line.LN6046046-1"            0.00013,      0.0     -0.00775735
"Line.LN6138589-1"            0.00002,      0.0     -0.00472658
"Line.LN6258445-1"            0.00002,      0.0     -0.000860687
"Line.LN5653480-1"            4.42685,     0.09     4.17039
"Line.LN5717630-1"            0.02142,     0.02     0.00828551
"Line.LN5956463-1"            1.86735,     0.15     0.645639
"Line.LN5744328-1"            0.00212,     0.00     -0.00123491
"Line.LN8979254-1"            0.00007,      0.0     -0.0142715
"Line.LN5620694-1"            0.00037,      0.0     -0.00666382
"Line.LN6048634-1"            5.31462,     0.05     12.5535
"Line.LN5895779-1"            0.00005,      0.0     -0.00587934
"Line.LN5951197-2"            0.00014,      0.0     -0.0219148
"Line.LN5563942-3"            4.56414,     0.04     10.7744
"Line.LN5835123-1"            0.00110,     0.01     -0.0176406
"Line.LN5956483-1"            0.00086,      0.0     -0.00827814
"Line.LN6291153-1"            0.00037,      0.0     -0.00824867
"Line.LN5683841-1"            0.00073,      0.0     -0.0103009
"Line.LN5804802-1"            1.45416,     0.13     0.51461
"Line.LN6167753-1"            0.00004,      0.0     -0.00949177
"Line.LN6047569-1"            0.00011,      0.0     -0.0115961
"Line.LN6229809-1"            0.70776,     0.10     0.20804
"Line.LN5804781-1"            0.01715,     0.02     0.000135234
"Line.LN6352701-1"            0.00000,      0.0     -0.00139625
"Line.LN5955074-2"            0.01590,     0.02     -0.00251328
"Line.LN6229805-1"            0.00152,     0.01     -0.0107512
"Line.LN6411376-1"            0.00127,     0.00     0.000181531
"Line.LN5654485-1"            0.00006,      0.0     -0.0147785
"Line.LN5746550-3"            0.00005,      0.0     -0.00822978
"Line.LN6232159-1"            0.00000,      0.0     -0.000527265
"Line.LN6412346-1"            0.00030,      0.0     -0.017846
"Line.LN6350548-1"            0.00132,     0.01     -0.00726416
"Line.LN6106658-1"            0.02631,     0.02     0.011184
"Line.LN6047554-1"            0.00011,      0.0     -0.0034835
"Line.LN5956458-1"            0.00015,      0.0     -0.00974242
"Line.LN5752776-2"            0.06169,     0.01     0.0219118
"Line.LN5651988-1"            0.00022,      0.0     -0.00575358
"Line.LN5562935-1"            0.00037,      0.0     -0.0122632
"Line.LN5502521-1"            0.00142,     0.01     -0.00609531
"Line.LN6409797-3"            0.05341,     0.04     0.0188801
"Line.LN5926332-1"            0.00039,      0.0     -0.00807249
"Line.LN5742811-4"            0.03220,     0.00     0.0276139
"Line.LN6505943-3"            0.00010,      0.0     -0.000175632
"Line.LN6228278-1"            0.00463,     0.00     0.00149695
"Line.LN5896844-1"            0.00002,      0.0     -0.00332499
"Line.LN5805761-1"            5.88471,     0.06     13.8919
"Line.LN5867683-2"            0.96298,     0.13     0.377048
"Line.LN5956467-1"            0.09392,     0.06     0.0357648
"Line.LN5683804-1"            0.00705,     0.01     -0.00745827
"Line.LN6505940-2"            0.04123,     0.03     0.0144668
"Line.LN6139649-1"            0.00040,      0.0     -0.00312661
"Line.LN5982822-1"            0.00018,      0.0     -0.00494096
"Line.LN81354564-11"          0.00828,     0.01     -0.0297175
"Line.LN5807087-1"            0.00027,      0.0     -0.000664602
"Line.LN5517002-3"            0.05419,     0.02     0.0289907
"Line.A8735_48332_SW"         0.83143,     0.01     0.83136
"Line.LN5710794-3"            2.54426,     0.02     5.99654
"Line.LN6388581-1"            0.00042,      0.0     -0.00383354
"Line.LN5499793-1"            0.00034,      0.0     -0.0158347
"Line.LN5653472-1"            0.00163,     0.00     -0.00451174
"Line.LN6288693-1"            0.00008,      0.0     -0.000834941
"Line.LN6199518-1"            0.13457,     0.03     0.001644
"Line.LN5738651-1"            0.00029,      0.0     -0.011024
"Line.LN5804836-1"            0.25791,     0.05     0.0695599
"Line.LN5926320-1"            0.00008,      0.0     -0.0142159
"Line.LN6121686-1"            0.00034,      0.0     -0.0118771
"Line.LN5532790-1"            0.00245,     0.01     -0.00866307
"Line.LN6258470-1"            0.00004,      0.0     -0.0105383
"Line.LN6411407-1"            0.01681,     0.01     -0.0264343
"Line.LN5636753-1"            0.00250,     0.01     -0.00295602
"Line.LN6321412-1"            0.00025,      0.0     -0.00130315
"Line.LN5833652-1"            0.02917,     0.03     0.00702665
"Line.LN5803262-1"            0.00008,      0.0     -0.00296507
"Line.LN6438273-3"            0.00869,     0.01     -0.0325384
"Line.LN6229827-1"            0.00011,      0.0     -0.00151825
"Line.LN5651995-1"            0.00055,      0.0     -0.00843979
"Line.LN5804793-1"            0.01889,     0.02     0.00341591
"Line.LN5894220-2"            0.00037,      0.0     -0.00590513
"Line.LN6413711-1"            0.00016,      0.0     -0.00659763
"Line.LN5837361-8"            0.00000,      0.0     -0.000746103
"Line.LN6506316-3"            0.00335,     0.02     -0.0575117
"Line.LN5652982-1"            0.00458,     0.02     -0.0192045
"Line.LN5624288-1"            2.33253,     0.03     5.56749
"Line.LN6048641-1"            0.00110,     0.00     -0.00486602
"Line.LN5686078-3"            0.00010,      0.0     -0.00158746
"Line.LN8939784-1"            0.00078,      0.0     -0.0207569
"Line.LN5989326-1"            0.00000,      0.0     -0.000789927
"Line.LN5898057-1"            0.00006,      0.0     -0.00105465
"Line.L5437_48332_SW"         0.28562,     0.00     0.28556
"Line.LN5535139-1"            0.15461,     0.00     0.367887
"Line.LN5653463-1"            0.00007,      0.0     -0.011691
"Line.LN6137084-3"            0.00000,      0.0     -0.00271692
"Line.LN5472343-1"            0.00768,     0.01     -0.00166151
"Line.LN5712477-2"            0.00247,     0.00     0.000540142
"Line.LN5501004-1"            0.03379,     0.02     -0.0185986
"Line.LN5744357-1"            0.00579,     0.02     -0.0122281
"Line.LN6350544-3"            0.71700,     0.04     0.652395
"Line.LN6900590-2"            0.00119,     0.00     0.000358459
"Line.LN6201696-2"            0.00013,      0.0     -0.0020417
"Line.LN5926324-1"            0.04764,     0.03     0.017535
"Line.LN5532749-2"            0.00002,      0.0     -0.000717006
"Line.LN8940663-1"            0.00070,      0.0     -0.172411
"Line.LN5773980-1"            0.00004,      0.0     -0.00793455
"Line.LN6350545-1"            0.00010,      0.0     -0.0116306
"Line.LN5653454-1"            0.00010,      0.0     -0.0130782
"Line.LN5623401-1"            0.00046,      0.0     -0.00504022
"Line.LN5863718-1"            0.00000,      0.0     -0.00083926
"Line.LN5712584-2"            0.00514,     0.01     -0.000753586
"Line.LN5924702-1"            0.00001,      0.0     -0.00897288
"Line.LN6047596-1"            0.00305,     0.01     -0.00629988
"Line.LN5744370-3"            0.00009,      0.0     -0.00460489
"Line.LN5861005-3"            0.86316,     0.01     2.05129
"Line.LN5776665-1"            0.00735,     0.00     0.00352794
"Line.LN5928546-1"            0.00007,      0.0     -0.000717283
"Line.LN6229797-1"            0.00034,      0.0     -0.00798971
"Line.LN5714915-1"            0.00014,      0.0     -0.00816353
"Line.LN6411385-1"            0.00023,      0.0     -0.0134362
"Line.LN5623406-1"            0.00118,     0.01     -0.0106985
"Line.LN5683822-1"            0.00022,      0.0     -0.00793449
"Line.LN6327237-2"            0.00246,     0.01     -0.00458964
"Line.LN6077785-1"            0.00017,      0.0     -0.0109641
"Line.LN5803262-8"            0.00002,      0.0     -0.00563897
"Line.LN5714080-1"            0.32681,     0.04     0.0873496
"Line.LN5526906-2"            0.00937,     0.00     0.00793
"Line.LN6108145-1"            0.00941,     0.01     -0.0300551
"Line.LN5591710-3"            1.76959,     0.03     4.20899
"Line.LN6078776-1"            0.00000,      0.0     -0.0687495
"Line.LN5576174-4"            1.97912,     0.03     4.70914
"Line.LN5926301-1"            0.03245,     0.01     0.00472153
"Line.LN6078768-1"            0.32306,     0.01     0.720323
"Line.LN6047578-1"            0.47345,     0.06     0.150683
"Line.LN8961800-3"            0.00007,      0.0     -0.00442162
"Line.LN5562927-1"            0.11236,     0.05     0.0534731
"Line.LN81048107-1"           0.01499,     0.02     -0.0324662
"Line.LN6320368-1"            0.24143,     0.05     0.066932
"Line.LN5803293-1"            0.00867,     0.02     -0.0110479
"Line.LN6138604-1"            0.22444,     0.04     0.0547342
"Line.LN8961799-1"            0.00077,      0.0     -0.0165666
"Line.LN5957460-1"            0.00056,      0.0     -0.00751899
"Line.LN6169261-1"            0.63221,     0.05     0.537898
"Line.LN5836089-1"            0.03766,     0.05     0.00203558
"Line.LN5773028-1"            0.00085,      0.0     -0.00571225
"Line.LN6138612-1"            0.00091,     0.01     -0.0505875
"Line.LN6017304-1"            0.00000,      0.0     -0.000209664
"Line.LN6440004-2"            0.00002,      0.0     -0.000999712
"Line.LN5866308-1"            4.78440,     0.04     11.3075
"Line.LN5562919-1"            0.05653,     0.04     0.0209591
"Line.LN6061814-1"            0.00013,      0.0     -0.0083862
"Line.LN6291152-1"            0.00696,     0.01     -0.00361865
"Line.LN5621864-1"            0.00049,      0.0     -0.00258677
"Line.LN5712475-1"            0.00002,      0.0     -0.000540658
"Line.LN5500984-1"            0.00269,     0.00     0.0007154
"Line.LN5472367-1"            0.00026,      0.0     -0.00933713
"Line.LN5926309-3"            0.00331,     0.01     -0.0130827
"Line.LN5625547-1"            0.00127,     0.00     -0.00020036
"Line.LN6407748-2"            0.03331,     0.02     0.0200234
"Line.LN6199513-1"            0.00022,      0.0     -0.00533766
"Line.LN6229795-3"            0.00012,      0.0     -0.00117071
"Line.LN5895802-1"            0.00006,      0.0     -0.00342317
"Line.LN5926293-1"            0.00010,      0.0     -0.009858
"Line.LN5916435-1"            0.00000,      0.0     -0.0109244
"Line.LN6344714-1"            0.00006,      0.0     -0.000236758
"Line.LN6077815-4"            0.50681,     0.09     0.22738
"Line.LN6259993-1"            0.04119,     0.04     0.0104853
"Line.LN5744358-1"            0.00026,      0.0     -0.00907801
"Line.LN5708136-1"            0.00018,      0.0     -0.000179296
"Line.LN6350542-1"            8.57484,     0.17     8.03231
"Line.LN6351517-1"            0.00185,     0.01     -0.00694868
"Line.LN5531255-2"            0.00387,     0.00     0.0011672
"Line.LN6298585-1"            1.28070,     0.15     0.458578
"Line.LN5774474-1"            0.00005,      0.0     -0.00842367
"Line.LN5683827-3"            0.00006,      0.0     -0.00333053
"Line.LN5835129-1"            0.02372,     0.03     -0.00072075
"Line.LN6506308-1"            0.00021,      0.0     -0.00847741
"Line.LN5532751-1"            0.04317,     0.02     0.0205369
"Line.LN6350528-1"            0.00144,     0.01     -0.00757359
"Line.LN5865228-1"            0.00284,     0.01     -0.0074251
"Line.LN5803270-2"            0.00011,      0.0     -0.00151942
"Line.LN5472360-1"            1.97469,     0.11     0.60762
"Line.LN81354564-9"           0.00018,      0.0     -0.00517512
"Line.LN6900591-20"           0.00050,      0.0     -0.00787437
"Line.LN6439975-1"            0.00474,     0.00     0.00185287
"Line.LN6259981-2"            0.00009,      0.0     -0.00959685
"Line.LN6350539-1"            0.01114,     0.02     -0.00564933
"Line.LN5926300-1"            0.00192,     0.01     -0.00776545
"Line.LN6261021-1"           15.71482,     0.14     37.1208
"Line.LN6141147-1"            0.39543,     0.10     0.210817
"Line.LN6411390-1"            0.00018,      0.0     -0.00803061
"Line.LN6351519-1"           13.54834,     0.12     32.003
"Line.LN8945012-1"            0.00003,      0.0     -0.00254489
"Line.LN5928544-2"            0.01074,     0.01     0.00196134
"Line.LN6379450-3"            0.00000,      0.0     -0.0151183
"Line.LN5503576-1"            0.52726,     0.02     1.18013
"Line.LN6320353-1"            0.00003,      0.0     -0.0052402
"Line.LN6198013-2"            0.11615,     0.04     0.0362524
"Line.LN6138597-1"            0.00902,     0.01     -0.00346341
"Line.LN5835132-1"            0.00018,      0.0     -0.0096638
"Line.LN5739188-1"            0.49762,     0.04     0.445737
"Line.LN5776667-1"            0.00178,     0.00     0.000390545
"Line.LN6326286-2"            0.00006,      0.0     -0.0130328
"Line.LN6229789-1"            0.00025,      0.0     -0.0116076
"Line.LN6170291-1"            0.00481,     0.01     -0.0058626
"Line.LN6350538-1"            0.23303,     0.05     0.0310289
"Line.LN5714052-2"            0.00009,      0.0     -0.00213408
"Line.LN5956487-1"            0.21247,     0.03     0.163685
"Line.LN5472384-2"            0.00001,      0.0     -0.0027104
"Line.LN6047575-2"            0.00002,      0.0     -0.000813831
"Line.LN5744343-3"            0.00003,      0.0     -0.00168498
"Line.LN6049824-1"            0.00004,      0.0     -0.00110709
"Line.LN6320329-1"            1.20759,     0.10     0.417282
"Line.LN5955074-3"            0.00170,     0.00     -0.000268819
"Line.LN5863823-1"            0.91974,     0.07     0.302913
"Line.LN5562931-3"            0.00004,      0.0     -0.000970764
"Line.LN6380835-1"            0.00002,      0.0     -0.00606779
"Line.LN6991380-4"            0.00027,      0.0     -0.00847559
"Line.LN6320325-1"            0.00078,      0.0     -0.0109386
"Line.LN5501000-1"            0.00010,      0.0     -0.00700102
"Line.LN6320364-1"            0.00007,      0.0     -0.0119374
"Line.LN5865232-1"            0.12551,     0.08     0.0532364
"Line.LN6292465-2"            0.04261,     0.02     0.0203748
"Line.LN8979251-1"            0.00007,      0.0     -0.0146116
"Line.LN6351512-1"            0.00001,      0.0     -0.001147
"Line.LN5644788-1"            0.00003,      0.0     -0.00906035
"Line.LN6207101-1"            0.00030,      0.0     -0.00831452
"Line.LN5831676-1"            0.00013,      0.0     -0.00752489
"Line.LN5502533-1"            5.47538,     0.28     1.70371
"Line.LN6256144-3"            3.92714,     0.19     1.2274
"Line.LN5744359-1"            0.00120,     0.01     -0.0188992
"Line.LN5804785-1"            0.00376,     0.01     -0.0298684
"Line.LN8979346-4"            0.00006,      0.0     -0.0020604
"Line.LN81048100-3"           0.02815,     0.02     -0.0285414
"Line.LN5986938-2"            0.00058,      0.0     -0.00112359
"Line.LN81018876-1"           0.00483,     0.00     -0.000929966
"Line.LN5653459-1"            0.00020,      0.0     -0.0116478
"Line.LN6290239-1"            0.00022,      0.0     -0.0118735
"Line.LN5593222-1"            2.17084,     0.17     0.742026
"Line.LN5561432-2"            0.08404,     0.09     0.0164082
"Line.LN5896825-1"            0.48280,     0.02     1.08488
"Line.LN6413565-1"            0.00582,     0.00     0.00179501
"Line.LN5712587-2"            0.08615,     0.05     0.0366086
"Line.LN6326286-1"            0.00026,      0.0     -0.0143454
"Line.LN5472406-1"            0.00006,      0.0     -0.00836909
"Line.LN8945010-1"            0.00014,      0.0     -0.00358051
"Line.LN5865245-1"            0.00091,     0.01     -0.0179294
"Line.LN5501089-1"            0.00005,      0.0     -0.0132941
"Line.LN5712587-3"            0.02909,     0.02     0.0123585
"Line.LN5503544-1"            1.13258,     0.02     2.69443
"Line.LN5534969-3"            0.49556,     0.01     1.17828
"Line.LN8979248-1"            0.00004,      0.0     -0.00863424
"Line.LN5594151-1"            0.00007,      0.0     -0.003561
"Line.LN5836178-1"            4.06344,     0.05     9.6623
"Line.LN6140777-1"            0.00576,     0.00     0.00203846
"Line.LN6108135-1"            0.00011,      0.0     -0.0109613
"Line.LN6381764-1"            0.01290,     0.02     -0.000358918
"Line.LN6348948-1"           10.36286,     0.14     24.6582
"Line.LN5502525-1"            0.00012,      0.0     -0.00884613
"Line.LN5651977-3"            0.00061,      0.0     -0.0023067
"Line.LN8961800-2"            0.00463,     0.01     -0.0753449
"Line.LN5956502-1"            0.00000,      0.0     -0.00447034
"Line.LN5958706-1"            0.00026,      0.0     -0.00372011
"Line.LN5623399-1"            0.00025,      0.0     -0.00879861
"Line.LN5623396-1"            0.02151,     0.03     0.000109769
"Line.LN5532734-1"            0.01028,     0.02     -0.00378281
"Line.LN5651961-1"            0.00023,      0.0     -0.0104987
"Line.LN6137015-1"            0.02141,     0.02     0.00570859
"Line.LN6019478-1"            0.00049,      0.0     -0.0126317
"Line.LN6376200-2"            0.01076,     0.02     -0.00683792
"Line.LN5926294-1"            0.00025,      0.0     -0.00877781
"Line.LN6108130-5"            0.00035,      0.0     -0.00856139
"Line.LN6077782-1"            0.79956,     0.11     0.245379
"Line.LN6286966-2"            0.00005,      0.0     -0.00537608
"Line.LN8979346-3"            0.00026,      0.0     -0.039051
"Line.LN5562947-1"            0.01717,     0.02     0.00227518
"Line.LN81048107-2"           0.00681,     0.01     -0.0359729
"Line.LN5655838-1"            0.05473,     0.02     -0.0234445
"Line.LN6017297-1"            0.00475,     0.01     -0.00215141
"Line.LN5956456-1"            0.08688,     0.09     0.0172572
"Line.LN6108148-1"            0.00003,      0.0     -0.0092969
"Line.LN81048100-7"           0.00447,     0.00     -0.000699644
"Line.LN5928545-1"            0.00002,      0.0     -0.000348495
"Line.LN5624291-1"            0.09467,     0.04     0.0630365
"Line.LN6134417-2"            0.00004,      0.0     -0.00115344
"Line.LN5504713-3"            0.00165,     0.00     -0.00497292
"Line.LN5895784-1"            0.00263,     0.01     -0.00522969
"Line.LN5683858-2"            0.00141,     0.00     -0.0157067
"Line.LN5986937-1"            0.00092,     0.00     -0.0033965
"Line.LN6041764-1"            0.00001,      0.0     -0.00486202
"Line.LN6228396-1"            0.04740,     0.04     0.0141798
"Line.LN5896727-1"            0.00026,      0.0     -0.00433136
...
"Line.LN4625713_SW"           0.00999,     0.00     0.00992574
"Line.LN5502543-2"            0.48027,     0.04     0.404378
"Line.LN5683824-1"            0.06546,     0.04     0.0277375
"Line.LN6259999-2"            0.00024,      0.0     -0.00362886
"Line.LN6349052-1"            0.00122,     0.01     -0.0448224
"Line.LN5926295-1"            0.00713,     0.02     -0.0154344
"Line.LN6381766-1"            0.02199,     0.02     0.00767953
"Line.LN5561439-2"            0.00883,     0.00     0.0150361
"Line.LN5502527-1"            0.00010,      0.0     -0.0153669
"Line.LN6290217-1"            0.01617,     0.01     -0.048101
"Line.LN5593246-1"            0.00698,     0.01     -0.0023489
"Line.LN5956465-1"            0.00493,     0.02     -0.0315369
"Line.LN5835134-1"            0.00018,      0.0     -0.0280705
"Line.LN5679695-1"            2.22986,     0.04     5.29439
"Line.LN6341781-2"            0.00002,      0.0     -0.00142231
"Line.LN6018336-1"            4.72118,     0.04     11.1553
"Line.LN5532749-3"            0.00014,      0.0     -0.00617245
"Line.LN5686244-1"            0.00017,      0.0     -0.000357106
"Line.LN6879074-1"            0.00002,      0.0     -0.00326944
"Line.LN6106511-1"            3.84856,     0.18     1.2007
"Line.LN5679770-2"            0.00004,      0.0     -0.00472764
"Line.LN5993742-1"            0.00008,      0.0     -0.0114984
"Line.LN6259997-1"            0.00055,      0.0     -0.00699412
"Line.LN5682337-1"            0.00000,      0.0     -0.00106953
"Line.LN5653456-1"            0.00076,      0.0     -0.00159801
"Line.LN6196270-4"            0.00016,      0.0     -0.00399202
"Line.LN6290233-1"            0.03058,     0.01     -0.0153364
"Line.LN6991377-13"           0.02503,     0.02     0.0121443
"Line.LN6199556-1"            0.00017,      0.0     -0.011902
"Line.LN5744323-1"            0.00481,     0.01     -0.00532572
"Line.LN5745347-1"            0.32640,     0.01     0.730131
"Line.LN6047561-1"            3.49508,     0.30     1.22487
"Line.LN6411389-1"            0.00506,     0.00     0.00164025
"Line.LN5774453-1"            2.50893,     0.21     0.877456
"Line.LN5926303-1"            0.01173,     0.02     -0.00647859
"Line.LN5770318-1"            0.02819,     0.00     0.00893347
"Line.LN5958702-3"            0.00230,     0.01     -0.0101086
"Line.LN5804806-1"            0.01890,     0.02     0.00491038
"Line.LN5561521-1"            0.00593,     0.02     -0.0165724
"Line.LN6199521-1"            0.00009,      0.0     -0.00935807
"Line.LN6290240-2"            0.00000,      0.0     -0.0415256
"Line.LN81018877-1"           0.00016,      0.0     -0.0177622
"Line.LN5860423-1"            2.38155,     0.05     2.24079
"Line.LN7064338-3"            0.00023,      0.0     -0.00637063
"Line.LN6077801-1"            0.00783,     0.02     -0.0115999
"Line.LN5653489-1"            0.00055,      0.0     -0.0324075
"Line.LN6199515-1"            0.00081,      0.0     -0.00203579
"Line.LN6380819-1"            0.00988,     0.01     -0.00402602
"Line.LN4641075_SW"           0.16738,     0.00     0.16731
"Line.LN5860423-3"            0.70055,     0.01     0.656119
"Line.LN5622467-4"            0.06335,     0.02     -0.0413811
"Line.LN81043320-3"           0.03176,     0.03     -0.0778767
"Line.LN6290213-1"            0.00071,      0.0     -0.00734758
"Line.LN6140774-2"            0.00044,      0.0     -0.00799176
"Line.LN5500984-4"            0.00158,     0.00     0.000494336
"Line.LN6412366-1"            0.00047,      0.0     -0.00860376
"Line.LN6383058-1"            0.00002,      0.0     -0.000684586
"Line.LN5649361-2"            0.00012,      0.0     -0.00735711
"Line.LN5562930-1"            0.00009,      0.0     -0.0119175
"Line.LN5863825-1"            0.00042,      0.0     -0.0162772
"Line.LN6290212-1"            3.70421,     0.20     1.15096
"Line.LN5714046-1"            0.00028,      0.0     -0.0153383
"Line.LN5682448-2"            0.00001,      0.0     -0.00157769
"Line.LN6229832-2"            0.00006,      0.0     -0.00911572
"Line.LN5843536-1"            0.06890,     0.01     0.0244752
"Line.LN5715018-1"            0.00013,      0.0     -0.00502371
"Line.L5491_48332_SW"         0.00003,      0.0     2.77633E-6
"Line.LN5655682-1"            0.00019,      0.0     -0.000479676
"Line.LN4625696_SW"           0.00441,     0.00     0.00434784
"Line.LN5926308-3"            0.23677,     0.03     0.065369
"Line.LN6290206-1"            0.00017,      0.0     -0.0090317
"Line.LN5562929-1"            0.00016,      0.0     -0.00573759
"Line.LN5803293-2"            0.00293,     0.01     -0.00550607
"Line.LN5745355-1"            3.94358,     0.04     9.31791
"Line.LN6017285-1"            0.00180,     0.01     -0.0241698
"Line.LN6201698-2"            0.00001,      0.0     -0.000608363
"Line.LN5501003-1"            0.00036,      0.0     -0.00880681
"Line.LN5924720-1"            0.00002,      0.0     -0.00384929
"Line.LN6255845-1"            0.00045,      0.0     -0.000717972
"Line.LN5956501-1"            0.00013,      0.0     -0.00722872
"Line.LN6077772-1"            0.00242,     0.01     -0.00777515
"Line.LN6225673-1"            0.00009,      0.0     -0.00122384
"Line.LN5561432-1"            0.01963,     0.02     0.00428983
"Line.LN4586093_SW"           0.02466,     0.00     0.0246022
"Line.LN6138608-3"            3.25464,     0.17     1.01175
"Line.LN6138618-1"            0.00039,      0.0     -0.0145085
"Line.LN5562921-1"            0.13253,     0.07     0.0606679
"Line.LN5895807-1"            0.00003,      0.0     -0.0152913
"Line.LN5502540-1"            0.09266,     0.04     0.0450549
"Line.LN6411375-1"            0.00020,      0.0     -0.00703041
"Line.LN6047573-2"            0.06275,     0.05     0.0221132
"Line.LN5741249-1"            0.00060,      0.0     -0.000154947
"Line.LN5698090-3"            0.00002,      0.0     -0.000486801
"Line.LN5989332-1"            0.00195,     0.01     -0.00586414
"Line.LN5927423-1"            0.01784,     0.02     -0.0738621
"Line.LN5895803-1"            0.00301,     0.01     -0.0103925
"Line.LN6260001-1"            0.00005,      0.0     -0.0157166
"Line.LN6229791-1"            0.00073,      0.0     -0.00610428
"Line.LN6409775-2"            0.00532,     0.01     -0.00355008
"Line.LN5714042-1"            0.00018,      0.0     -0.00965004
"Line.LN6411005-1"            0.12089,     0.03     0.0278392
"Line.LN5532788-2"            0.00001,      0.0     -0.00143736
"Line.LN5744325-1"            0.00021,      0.0     -0.00792627
"Line.LN6320332-1"            0.23474,     0.14     0.100939
"Line.LN6991378-5"            0.00030,      0.0     -0.0092756
"Line.LN5863704-3"            0.90360,     0.03     0.849346
"Line.LN6318745-3"            0.01672,     0.01     0.00629633
"Line.LN6413700-1"            3.78615,     0.05     9.036
"Line.LN6409778-1"            0.09999,     0.04     -0.0480891
"Line.LN6381854-1"            0.00123,     0.01     -0.0152291
"Line.LN6138608-2"            0.17496,     0.01     0.0543916
"Line.LN5744370-2"            0.00011,      0.0     -0.00585982
"Line.LN6290240-3"            0.00000,      0.0     -0.0265785
"Line.LN8979358-1"            0.00250,     0.01     -0.0294054
"Line.LN5927383-1"            0.00130,     0.00     -0.0488478
"Line.L5659_48332_SW"         0.00083,      0.0     0.000804396
"Line.LN6231996-1"            0.03417,     0.02     0.0158937
"Line.LN5533797-1"            0.00030,      0.0     -0.0494358
"Line.LN6047582-1"            0.00012,      0.0     -0.012543
"Line.LN6409775-4"            0.00815,     0.01     -0.0037608
"Line.LN5926290-1"            0.00095,     0.01     -0.0230844
"Line.LN6381820-1"            7.30637,     0.10     17.417
"Line.LN6103662-1"            0.00321,     0.01     -0.00918854
"Line.LN6262430-1"            0.00005,      0.0     -0.000624994
"Line.LN5742813-1"            0.00046,      0.0     -0.00734791
"Line.LN6199527-1"            0.61549,     0.07     0.175033
"Line.LN5986925-2"            0.00053,      0.0     -0.00680476
"Line.LN5742811-1"            0.28732,     0.02     0.2472
"Line.LN5926284-3"            0.00349,     0.01     -0.00369525
"Line.LN6413954-1"            3.68201,     0.05     8.75024
"Line.LN6411366-1"            0.03217,     0.05     -0.0185703
"Line.LN6412354-1"            1.06767,     0.01     2.52273
"Line.LN5895789-2"            0.51457,     0.08     0.153199
"Line.LN6383060-2"            0.01626,     0.01     0.00788962
"Line.LN6259984-1"            3.73000,     0.06     8.85519
"Line.LN5591814-1"            0.34379,     0.09     0.179945
"Line.LN5502531-1"            1.47934,     0.08     0.459602
"Line.LN5863746-1"            0.00000,      0.0     -0.00109214
"Line.LN5956499-3"            0.13521,     0.02     0.108962
"Line.LN5769126-1"            1.75933,     0.03     4.18176
"Line.LN3693186_SW"           0.37930,     0.01     0.379236
"Line.LN5861005-2"            0.37519,     0.00     0.891635
"Line.LN5714043-1"            0.00014,      0.0     -0.00181454
"Line.LN5835138-1"            0.00010,      0.0     -0.0108505
"Line.LN6411383-1"            0.88698,     0.06     0.809596
"Line.LN81048100-2"           0.04608,     0.03     -0.0212913
"Line.LN6019479-1"            0.00404,     0.00     0.00130456
"Line.LN5714044-1"            0.00001,      0.0     -0.00205733
"Line.LN6260000-1"            0.08402,     0.04     0.0400997
"Line.LN5985347-1"            0.00304,     0.01     -0.0102648
"Line.LN6348967-1"            0.00000,      0.0     -0.00344808
"Line.LN5833611-1"            0.00544,     0.02     -0.0168894
"Line.LN5593251-1"            0.29116,     0.03     0.243216
"Line.LN5837358-1"            0.00030,      0.0     -0.000411056
"Line.LN5894218-1"            0.00689,     0.02     -0.0148575
"Line.LN6195132-1"            0.00037,      0.0     -0.00106152
"Line.LN6229829-2"            0.05469,     0.01     0.0466332
"Line.LN6380825-1"            0.02159,     0.02     0.00193367
"Line.LN5624375-1"            0.00014,      0.0     -0.0156057
"Line.LN5533710-1"            0.00005,      0.0     -0.00273914
"Line.LN6196270-2"            0.00030,      0.0     -0.0202954
"Line.LN5653464-1"            0.00007,      0.0     -0.00217551
"Line.LN5986919-1"            0.00340,     0.01     -0.00546992
"Line.LN5807086-1"            0.00003,      0.0     -0.00816985
"Line.LN5805676-2"            0.00001,      0.0     -0.000754062
"Line.LN6108170-1"            0.00809,     0.00     0.00370695
"Line.LN6292466-1"            0.00002,      0.0     -0.00117504
"Line.LN5472394-1"            0.00042,      0.0     -0.000172778
"Line.LN6017328-1"            0.00388,     0.01     -0.0147252
"Line.LN5957493-1"            0.73113,     0.03     1.63462
"Line.LN5623403-1"            3.99648,     0.19     1.24994
"Line.LN6320333-1"            0.09181,     0.05     0.0429021
"Line.LN5865241-1"            0.07130,     0.03     0.0341154
"Line.LN6259998-3"            0.00005,      0.0     -0.00204024
"Line.LN6046058-1"            0.00109,     0.00     -0.00685423
"Line.LN6229788-1"            0.00002,      0.0     -0.000436456
"Line.LN6896673-7"            0.00003,      0.0     -0.00340703
"Line.LN6169257-1"            1.42774,     0.09     1.3034
"Line.LN5682375-1"            0.00529,     0.01     -0.00508269
"Line.LN6106584-1"            0.00202,     0.01     -0.00843618
"Line.LN5472403-3"            0.06794,     0.03     -0.0281819
"Line.LN6137009-2"            0.75999,     0.01     1.80968
"Line.LN5502536-2"            0.00023,      0.0     -0.00115233
"Line.LN5926304-1"            0.01478,     0.02     -0.00576617
"Line.LN5806921-1"            0.00009,      0.0     -0.000934874
"Line.LN6108146-1"            0.00036,      0.0     -0.00468623
"Line.LN5803267-1"            0.00114,     0.01     -0.0183076
"Line.LN5486729-1"            0.00000,      0.0     -0.000363347
"Line.LN5835142-1"            0.01038,     0.01     -0.000349027
"Line.LN5683842-1"            0.00006,      0.0     -0.000335744
"Line.LN6047598-1"            0.00004,      0.0     -0.00843102
"Line.V7313_48332_SW"         0.00003,      0.0     3.05453E-6
"Line.LN5806920-1"            0.00013,      0.0     -0.000496461
"Line.LN5987955-2"            0.00086,      0.0     -0.00688878
"Line.LN5744371-1"            0.00032,      0.0     -0.00634153
"Line.LN6352702-1"            0.00060,      0.0     -0.000838015
"Line.LN5835151-1"            0.00147,     0.01     -0.0134529
"Line.LN5894212-2"            0.00087,      0.0     -0.0647348
"Line.LN5774458-1"            0.19187,     0.03     0.0340359
"Line.LN5895771-2"            0.00002,      0.0     -0.00335831
"Line.LN5837355-1"            0.06514,     0.03     0.0311483
"Line.LN6015811-1"            0.00039,      0.0     -0.0110025
"Line.LN81048106-1"           0.01006,     0.01     -0.0136324
"Line.LN5804835-1"            0.00126,     0.00     -0.00928519
"Line.LN5805676-3"            0.00011,      0.0     -0.00581109
"Line.LN6043468-3"            0.00034,      0.0     -0.00337018
"Line.LN6047566-1"            0.09424,     0.02     0.000843894
"Line.LN6381855-1"            0.00009,      0.0     -0.0101628
"Line.LN5943422-3"            0.00202,     0.00     -0.00183606
"Line.LN81048088-1"           0.00230,     0.00     -0.00191612
"Line.LN5683827-2"            0.00002,      0.0     -0.00113199
"Line.LN5532782-1"            0.02505,     0.02     0.0106801
"Line.LN6106580-1"            0.00550,     0.01     -0.00833187
"Line.LN5562946-1"            0.00034,      0.0     -0.0048533
"Line.LN5920279-2"            0.59719,     0.01     1.42056
"Line.LN5621886-1"            0.14252,     0.09     -0.0785307
"Line.LN6290209-1"            1.14439,     0.22     0.157989
"Line.LN5863714-2"            0.26470,     0.00     0.629372
"Line.LN6106583-4"            0.00069,      0.0     -0.000537245
"Line.LN6015794-1"            0.00016,      0.0     -0.00765846
"Line.LN81048103-2"           0.02612,     0.03     -0.0566457
"Line.LN6078689-1"            0.00022,      0.0     -0.00321411
"Line.LN5683805-1"            0.00037,      0.0     -0.0198746
"Line.LN6199558-1"            0.23806,     0.10     0.116059
"Line.LN6286109-1"            0.74779,     0.01     1.7811
"Line.LN6350556-3"            3.56389,     0.07     3.38656
"Line.LN5625548-1"            0.00016,      0.0     -0.00101672
"Line.LN6199546-1"            0.00023,      0.0     -0.00337243
...